@<TRIPOS>MOLECULE
07V
   25    25     1     0     0
SMALL
No Charge or Current Charge


@<TRIPOS>ATOM
      1 H14         -4.2990    -0.4380     1.1080 ha         1 07V        0.195
      2 CAA         -3.2250    -0.3040     1.2190 c2         1 07V       -0.556
      3 H13         -2.8300    -0.3720     2.2310 ha         1 07V        0.175
      4 CAH         -2.4320    -0.0710     0.1660 c2         1 07V        0.184
      5 CAB         -2.9970     0.0190    -1.2340 c3         1 07V       -0.310
      6 H10         -2.8120     1.0040    -1.6840 hc         1 07V        0.095
      7 H11         -4.0780    -0.1490    -1.2320 hc         1 07V        0.095
      8 H12         -2.5420    -0.7200    -1.9060 hc         1 07V        0.095
      9 CAK         -0.9330     0.0990     0.3560 c3         1 07V        0.147
     10 H9          -0.7300     0.0340     1.4340 hc         1 07V        0.040
     11 CAG         -0.1110    -1.0130    -0.3290 c3         1 07V       -0.398
     12 H1          -0.4140    -2.0080     0.0120 hc         1 07V        0.106
     13 H2          -0.2680    -0.9830    -1.4180 hc         1 07V        0.131
     14 CAJ          1.3840    -0.8630    -0.0870 c          1 07V        0.615
     15 OAD          2.1170    -1.8490    -0.0260 o          1 07V       -0.555
     16 CAI          1.9310     0.5110     0.0280 ce         1 07V       -0.035
     17 CAC          3.4260     0.6420     0.1680 c3         1 07V       -0.398
     18 H3           3.9430     0.1750    -0.6790 hc         1 07V        0.122
     19 H4           3.7810     0.1290     1.0700 hc         1 07V        0.122
     20 H5           3.7260     1.6930     0.2240 hc         1 07V        0.122
     21 CAE          1.0920     1.5660    -0.0110 c2         1 07V       -0.112
     22 H6           1.5120     2.5710     0.0330 ha         1 07V        0.147
     23 CAF         -0.4050     1.4700    -0.1160 c3         1 07V       -0.254
     24 H7          -0.6970     1.6540    -1.1620 hc         1 07V        0.126
     25 H8          -0.8670     2.2760     0.4680 hc         1 07V        0.101
@<TRIPOS>BOND
     1     1     2 1   
     2     2     3 1   
     3     2     4 2   
     4     4     5 1   
     5     4     9 1   
     6     5     6 1   
     7     5     7 1   
     8     5     8 1   
     9     9    10 1   
    10     9    11 1   
    11     9    23 1   
    12    11    12 1   
    13    11    13 1   
    14    11    14 1   
    15    14    15 2   
    16    14    16 1   
    17    16    17 1   
    18    16    21 2   
    19    17    18 1   
    20    17    19 1   
    21    17    20 1   
    22    21    22 1   
    23    21    23 1   
    24    23    24 1   
    25    23    25 1   
@<TRIPOS>SUBSTRUCTURE
     1 07V         1 TEMP              0 ****  ****    0 ROOT
